power-feeders/modified_taxonomy/R1_1247_3_t6/R1_1247_3_t6_custom.glm

#include "appliance_schedules.glm";
#include "water_and_setpoint_schedule_v5.glm";
#include "commercial_schedules.glm";
#include "daily_elasticity_schedules.glm";

#set threadcount=1;
#set profiler=1;
#set relax_naming_rules=1;
#set suppress_repeat_messages=1

#set deltamode_maximumtime=1000000000
#set deltamode_iteration_limit=10

#set minimum_timestep=60

#set pauseat='2009-06-01 00:00:00'
clock {
     timezone PST+8PDT;
     starttime '2009-06-01 00:00:00';
     stoptime '2009-06-03 00:00:00';
}

module tape;
module residential {
     implicit_enduses NONE;
	 //enable_subsecond_models true;
	 //all_house_delta true;
	 //deltamode_timestep 200.0 ms;
}
module powerflow {
    solver_method NR;
    NR_iteration_limit 50;
    enable_subsecond_models true;
    all_powerflow_delta true;
    enable_frequency_dependence true;
    deltamode_timestep 10.0 ms;
    default_maximum_voltage_error 1e-6;
};
module generators {
	enable_subsecond_models true;
	deltamode_timestep 10.0 ms;
}
module market;
module climate;


object climate {
     name "TN-Nashville";
     tmyfile "TN-Nashville.tmy2";
     interpolate QUADRATIC;
};


class auction {
     double current_price_mean_1h;
     double current_price_stdev_1h;
};

object climate{
	name "CA-San_francisco";
	tmyfile "CA-San_francisco.tmy2";
	interpolate QUADRATIC;

};

object regulator_configuration{
	name regulator_configuration_223;
	name feeder_reg_cfg;
	Control OUTPUT_VOLTAGE;
	band_center 7500.0;
	band_width 120;
	connect_type WYE_WYE;
	time_delay 30;
	raise_taps 16;
	lower_taps 16;
	regulation 0.10;
	tap_pos_A 0;
	tap_pos_B 0;
	tap_pos_C 0;

};

object line_configuration{
	name line_configuration_17;
	conductor_A underground_line_conductor_2;
	conductor_B underground_line_conductor_2;
	conductor_C underground_line_conductor_2;
	conductor_N underground_line_conductor_2;
	spacing line_spacing_9;

};

object line_configuration{
	name line_configuration_18;
	conductor_A overhead_line_conductor_3;
	conductor_B overhead_line_conductor_3;
	conductor_C overhead_line_conductor_3;
	conductor_N overhead_line_conductor_3;
	spacing line_spacing_10;

};

object line_configuration{
	name line_configuration_19;
	conductor_A overhead_line_conductor_4;
	conductor_C overhead_line_conductor_4;
	conductor_N overhead_line_conductor_4;
	spacing line_spacing_11;

};

object line_configuration{
	name line_configuration_20;
	conductor_C overhead_line_conductor_5;
	conductor_N overhead_line_conductor_5;
	spacing line_spacing_12;

};

object line_configuration{
	name line_configuration_21;
	conductor_A overhead_line_conductor_4;
	conductor_B overhead_line_conductor_4;
	conductor_C overhead_line_conductor_4;
	conductor_N overhead_line_conductor_4;
	spacing line_spacing_10;

};

object line_configuration{
	name line_configuration_22;
	conductor_A overhead_line_conductor_5;
	conductor_C overhead_line_conductor_5;
	conductor_N overhead_line_conductor_5;
	spacing line_spacing_11;

};

object line_configuration{
	name line_configuration_23;
	conductor_C overhead_line_conductor_4;
	conductor_N overhead_line_conductor_4;
	spacing line_spacing_12;

};

object line_configuration{
	name line_configuration_24;
	conductor_A overhead_line_conductor_6;
	conductor_B overhead_line_conductor_6;
	conductor_C overhead_line_conductor_6;
	conductor_N overhead_line_conductor_6;
	spacing line_spacing_10;

};

object line_configuration{
	name line_configuration_25;
	conductor_A overhead_line_conductor_6;
	conductor_N overhead_line_conductor_6;
	spacing line_spacing_13;

};

object line_configuration{
	name line_configuration_26;
	conductor_A overhead_line_conductor_7;
	conductor_B overhead_line_conductor_7;
	conductor_C overhead_line_conductor_7;
	conductor_N overhead_line_conductor_7;
	spacing line_spacing_10;

};

object line_configuration{
	name line_configuration_27;
	conductor_A overhead_line_conductor_5;
	conductor_B overhead_line_conductor_5;
	conductor_C overhead_line_conductor_5;
	conductor_N overhead_line_conductor_5;
	spacing line_spacing_10;

};

object line_configuration{
	name line_configuration_28;
	conductor_B underground_line_conductor_8;
	conductor_C underground_line_conductor_8;
	conductor_N underground_line_conductor_8;
	spacing line_spacing_14;

};

object line_configuration{
	name line_configuration_29;
	conductor_B underground_line_conductor_8;
	conductor_N underground_line_conductor_8;
	spacing line_spacing_15;

};

object line_configuration{
	name line_configuration_30;
	conductor_B overhead_line_conductor_5;
	conductor_C overhead_line_conductor_5;
	conductor_N overhead_line_conductor_5;
	spacing line_spacing_16;

};

object line_configuration{
	name line_configuration_31;
	conductor_A overhead_line_conductor_4;
	conductor_N overhead_line_conductor_4;
	spacing line_spacing_13;

};

object line_configuration{
	name line_configuration_32;
	conductor_A overhead_line_conductor_5;
	conductor_N overhead_line_conductor_5;
	spacing line_spacing_13;

};

object line_configuration{
	name line_configuration_33;
	conductor_A underground_line_conductor_8;
	conductor_B underground_line_conductor_8;
	conductor_C underground_line_conductor_8;
	conductor_N underground_line_conductor_8;
	spacing line_spacing_9;

};

object line_spacing{
	name line_spacing_9;
	distance_AB 0.0 in;
	distance_BC 0.0 in;
	distance_AC 0.0 in;
	distance_AN 0.0 in;
	distance_BN 0.0 in;
	distance_CN 0.0 in;

};

object line_spacing{
	name line_spacing_10;
	distance_AB 57.6 in;
	distance_BC 57.6 in;
	distance_AC 57.6 in;
	distance_AN 84.0 in;
	distance_BN 84.0 in;
	distance_CN 84.0 in;

};

object line_spacing{
	name line_spacing_11;
	distance_AC 57.6 in;
	distance_AN 84.0 in;
	distance_CN 84.0 in;

};

object line_spacing{
	name line_spacing_12;
	distance_CN 84.0 in;

};

object line_spacing{
	name line_spacing_13;
	distance_AN 84.0 in;

};

object line_spacing{
	name line_spacing_14;
	distance_BC 0.0 in;
	distance_BN 0.0 in;
	distance_CN 0.0 in;

};

object line_spacing{
	name line_spacing_15;
	distance_BN 0.0 in;

};

object line_spacing{
	name line_spacing_16;
	distance_BC 57.6 in;
	distance_BN 84.0 in;
	distance_CN 84.0 in;

};

object overhead_line_conductor{
	name overhead_line_conductor_3;
	//name 4/0 ACSR;
	rating.summer.continuous 334.0;
	geometric_mean_radius 0.00814 ft;
	resistance 0.56300;

};

object overhead_line_conductor{
	name overhead_line_conductor_4;
	//name 4 AAAC;
	rating.summer.continuous 120.0;
	geometric_mean_radius 0.00700 ft;
	resistance 2.40970;

};

object overhead_line_conductor{
	name overhead_line_conductor_5;
	//name 4 CU;
	rating.summer.continuous 149.0;
	geometric_mean_radius 0.00663 ft;
	resistance 1.50000;

};

object overhead_line_conductor{
	name overhead_line_conductor_6;
	//name 2 ACSR;
	rating.summer.continuous 180.0;
	geometric_mean_radius 0.00418 ft;
	resistance 1.62570;

};

object overhead_line_conductor{
	name overhead_line_conductor_7;
	//name 1/0 AAC;
	rating.summer.continuous 230.0;
	geometric_mean_radius 0.01203 ft;
	resistance 0.95300;

};

object transformer_configuration{
	name transformer_configuration_132;
	connect_type SINGLE_PHASE_CENTER_TAPPED;
	install_type POLETOP;
	primary_voltage 7200 V;
	secondary_voltage 120 V;
	power_rating 450.0;
	powerB_rating 450.0;
	resistance 0.00033;
	reactance 0.00022;
	shunt_impedance 1226.160+1358.242j;

};

object transformer_configuration{
	name transformer_configuration_134;
	connect_type WYE_WYE;
	install_type PADMOUNT;
	primary_voltage 12470.000 V;
	secondary_voltage 480 V;
	power_rating 50.0;
	powerC_rating 50.0;
	resistance 0.00200;
	reactance 0.01000;
	shunt_impedance 391.760+390.395j;

};

object transformer_configuration{
	name transformer_configuration_135;
	connect_type WYE_WYE;
	install_type PADMOUNT;
	primary_voltage 12470.000 V;
	secondary_voltage 480 V;
	power_rating 45.0;
	powerA_rating 15.0;
	powerB_rating 15.0;
	powerC_rating 15.0;
	resistance 0.00222;
	reactance 0.01111;
	shunt_impedance 381.330+362.111j;

};

object transformer_configuration{
	name transformer_configuration_136;
	connect_type WYE_WYE;
	install_type POLETOP;
	primary_voltage 12470.000 V;
	secondary_voltage 480 V;
	power_rating 25.0;
	powerA_rating 0.0;
	powerC_rating 25.0;
	resistance 0.00400;
	reactance 0.02000;
	shunt_impedance 339.610+298.041j;

};

object transformer_configuration{
	name transformer_configuration_137;
	connect_type WYE_WYE;
	install_type POLETOP;
	primary_voltage 12470.000 V;
	secondary_voltage 480 V;
	power_rating 50.0;
	powerC_rating 50.0;
	resistance 0.00200;
	reactance 0.01000;
	shunt_impedance 391.760+396.403j;

};

object transformer_configuration{
	name transformer_configuration_138;
	connect_type WYE_WYE;
	install_type POLETOP;
	primary_voltage 12470.000 V;
	secondary_voltage 480 V;
	power_rating 75.0;
	powerA_rating 0.0;
	powerB_rating 0.0;
	powerC_rating 75.0;
	resistance 0.00133;
	reactance 0.00667;
	shunt_impedance 443.910+486.502j;

};

object transformer_configuration{
	name transformer_configuration_139;
	connect_type WYE_WYE;
	install_type POLETOP;
	primary_voltage 12470.000 V;
	secondary_voltage 480 V;
	power_rating 37.5;
	powerA_rating 37.5;
	resistance 0.00267;
	reactance 0.01333;
	shunt_impedance 365.685+353.218j;

};

object transformer_configuration{
	name transformer_configuration_140;
	connect_type WYE_WYE;
	install_type POLETOP;
	primary_voltage 12470.000 V;
	secondary_voltage 480 V;
	power_rating 75.0;
	powerA_rating 25.0;
	powerB_rating 25.0;
	powerC_rating 25.0;
	resistance 0.00133;
	reactance 0.00667;
	shunt_impedance 443.910+436.216j;

};

object transformer_configuration{
	name transformer_configuration_141;
	connect_type WYE_WYE;
	install_type POLETOP;
	primary_voltage 12470.000 V;
	secondary_voltage 480 V;
	power_rating 75.0;
	powerB_rating 75.0;
	resistance 0.00133;
	reactance 0.00667;
	shunt_impedance 443.910+471.268j;

};

object transformer_configuration{
	name transformer_configuration_142;
	connect_type WYE_WYE;
	install_type POLETOP;
	primary_voltage 12470.000 V;
	secondary_voltage 480 V;
	power_rating 75.0;
	powerA_rating 0.0;
	powerB_rating 25.0;
	powerC_rating 50.0;
	resistance 0.00133;
	reactance 0.00667;
	shunt_impedance 443.910+482.260j;

};

object transformer_configuration{
	name transformer_configuration_143;
	connect_type WYE_WYE;
	install_type POLETOP;
	primary_voltage 12470.000 V;
	secondary_voltage 480 V;
	power_rating 100.0;
	powerA_rating 100.0;
	resistance 0.00100;
	reactance 0.00500;
	shunt_impedance 496.060+425.773j;

};

object transformer_configuration{
	name transformer_configuration_144;
	connect_type WYE_WYE;
	install_type POLETOP;
	primary_voltage 12470.000 V;
	secondary_voltage 480 V;
	power_rating 25.0;
	powerA_rating 25.0;
	resistance 0.00400;
	reactance 0.02000;
	shunt_impedance 339.610+346.401j;

};

object transformer_configuration{
	name transformer_configuration_145;
	connect_type WYE_WYE;
	install_type POLETOP;
	primary_voltage 12470.000 V;
	secondary_voltage 480 V;
	power_rating 50.0;
	powerB_rating 50.0;
	resistance 0.00200;
	reactance 0.01000;
	shunt_impedance 391.760+399.432j;

};

object transformer_configuration{
	name transformer_configuration_146;
	connect_type WYE_WYE;
	install_type POLETOP;
	primary_voltage 12470.000 V;
	secondary_voltage 480 V;
	power_rating 175.0;
	powerB_rating 175.0;
	resistance 0.00057;
	reactance 0.00286;
	shunt_impedance 652.510+642.648j;

};

object transformer_configuration{
	name transformer_configuration_147;
	connect_type WYE_WYE;
	install_type POLETOP;
	primary_voltage 12470.000 V;
	secondary_voltage 480 V;
	power_rating 150.0;
	powerA_rating 50.0;
	powerB_rating 50.0;
	powerC_rating 50.0;
	resistance 0.00067;
	reactance 0.00333;
	shunt_impedance 600.360+653.959j;

};

object transformer_configuration{
	name transformer_configuration_148;
	connect_type WYE_WYE;
	install_type POLETOP;
	primary_voltage 12470.000 V;
	secondary_voltage 480 V;
	power_rating 112.5;
	powerA_rating 37.5;
	powerB_rating 37.5;
	powerC_rating 37.5;
	resistance 0.00089;
	reactance 0.00444;
	shunt_impedance 522.135+503.119j;

};

object triplex_line_conductor{
	name triplex_4/0 AA;
	resistance 0.48;
	geometric_mean_radius 0.0158;

};

object triplex_line_configuration{
	name triplex_line_configuration_1;
	conductor_1 triplex_4/0 AA;
	conductor_2 triplex_4/0 AA;
	conductor_N triplex_4/0 AA;
	insulation_thickness 0.08;
	diameter 0.522;

};

object underground_line_conductor{
	name underground_line_conductor_2;
	//name 1000 AAC (Conc);
	rating.summer.continuous 488.0;
	outer_diameter 2.15;
	conductor_gmr 0.0371 ft;
	conductor_diameter 1.152;
	conductor_resistance 0.091872;
	neutral_gmr 0.0842565914341201 ft;
	neutral_resistance 5.3856;
	neutral_diameter 0.1019;
	neutral_strands 20.0;
	shield_gmr 0.00;
	shield_resistance 0.00;

};

object underground_line_conductor{
	name underground_line_conductor_8;
	//name 1/0 AAC (Conc);
	rating.summer.continuous 142.0;
	outer_diameter 1.27;
	conductor_gmr 0.01142 ft;
	conductor_diameter 0.362;
	conductor_resistance 0.88704;
	neutral_gmr 0.0489686771417213 ft;
	neutral_resistance 13.86528;
	neutral_diameter 0.0641;
	neutral_strands 16.0;
	shield_gmr 0.00;
	shield_resistance 0.00;

};

object transformer_configuration{
	name trans_config_to_feeder;
	connect_type WYE_WYE;
	install_type PADMOUNT;
	primary_voltage 230000;
	secondary_voltage 12470.000;
	power_rating 1.4 MVA;
	impedance 0.00033+0.0022j;

};

object meter{
	name network_node;
	bustype SWING;
	nominal_voltage 230000;
	phases ABCN;

};

object transformer{
	name substation_transformer;
	from network_node;
	to node_53;
	phases ABCN;
	configuration trans_config_to_feeder;

};

object fuse{
	name fuse_1;
	phases AN;
	from node_19;
	to node_20;
	mean_replacement_time 1000;
	current_limit 50000;
	status CLOSED;

};

object fuse{
	name fuse_2;
	phases BCN;
	from node_21;
	to node_23;
	mean_replacement_time 1000;
	current_limit 50000;
	status CLOSED;

};

object fuse{
	name fuse_3;
	phases AN;
	from node_27;
	to node_28;
	mean_replacement_time 1000;
	current_limit 50000;
	status CLOSED;

};

object fuse{
	name fuse_4;
	phases AN;
	from node_32;
	to node_33;
	mean_replacement_time 1000;
	current_limit 50000;
	status CLOSED;

};

object fuse{
	name fuse_5;
	phases ABCN;
	from node_32;
	to node_35;
	mean_replacement_time 1000;
	current_limit 50000;
	status CLOSED;

};

object fuse{
	name fuse_6;
	phases BN;
	from node_36;
	to node_37;
	mean_replacement_time 1000;
	current_limit 50000;
	status CLOSED;

};

object fuse{
	name fuse_7;
	phases BN;
	from node_36;
	to node_40;
	mean_replacement_time 1000;
	current_limit 50000;
	status CLOSED;

};

object node{
	name load_1;
	parent meter_1;
	phases CN;
	nominal_voltage 480.00;

};

object node{
	name load_2;
	parent meter_2;
	phases ABCN;
	nominal_voltage 480.00;

};

object node{
	name load_3;
	parent meter_3;
	phases ACN;
	nominal_voltage 480.00;

};

object node{
	name load_4;
	parent meter_4;
	phases CN;
	nominal_voltage 480.00;

};

object node{
	name load_5;
	parent meter_5;
	phases CN;
	nominal_voltage 480.00;

};

object node{
	name load_6;
	parent meter_6;
	phases ABCN;
	nominal_voltage 480.00;

};

object node{
	name load_7;
	parent meter_7;
	phases AN;
	nominal_voltage 480.00;

};

object node{
	name load_8;
	parent meter_8;
	phases ABCN;
	nominal_voltage 480.00;

};

object node{
	name load_9;
	parent meter_9;
	phases BN;
	nominal_voltage 480.00;

};

object node{
	name load_10;
	parent meter_10;
	phases ABCN;
	nominal_voltage 480.00;

};

object node{
	name load_11;
	parent meter_11;
	phases AN;
	nominal_voltage 480.00;

};

object node{
	name load_12;
	parent meter_12;
	phases AN;
	nominal_voltage 480.00;

};

object node{
	name load_13;
	parent meter_13;
	phases AN;
	nominal_voltage 480.00;

};

object node{
	name load_14;
	parent meter_14;
	phases AN;
	nominal_voltage 480.00;

};

object node{
	name load_15;
	parent meter_15;
	phases BN;
	nominal_voltage 480.00;

};

object node{
	name load_16;
	parent meter_16;
	phases BN;
	nominal_voltage 480.00;

};

object node{
	name load_17;
	parent meter_17;
	phases BN;
	nominal_voltage 480.00;

};

object node{
	name load_18;
	parent meter_18;
	phases ABCN;
	nominal_voltage 480.00;

};

object node{
	name load_19;
	parent meter_19;
	phases AN;
	nominal_voltage 480.00;

};

object node{
	name load_20;
	parent meter_20;
	phases ABCN;
	nominal_voltage 480.00;

};

object node{
	name load_21;
	parent meter_21;
	phases ABCN;
	nominal_voltage 480.00;

};

object meter{
	name meter_1;
	phases CN;
	nominal_voltage 480;

};

object meter{
	name meter_2;
	phases ABCN;
	nominal_voltage 480;

};

object meter{
	name meter_3;
	phases ACN;
	nominal_voltage 480;

};

object meter{
	name meter_4;
	phases CN;
	nominal_voltage 480;

};

object meter{
	name meter_5;
	phases CN;
	nominal_voltage 480;

};

object meter{
	name meter_6;
	phases ABCN;
	nominal_voltage 480;

};

object meter{
	name meter_7;
	phases AN;
	nominal_voltage 480;

};

object meter{
	name meter_8;
	phases ABCN;
	nominal_voltage 480;

};

object meter{
	name meter_9;
	phases BN;
	nominal_voltage 480;

};

object meter{
	name meter_10;
	phases ABCN;
	nominal_voltage 480;

};

object meter{
	name meter_11;
	phases AN;
	nominal_voltage 480;

};

object meter{
	name meter_12;
	phases AN;
	nominal_voltage 480;

};

object meter{
	name meter_13;
	phases AN;
	nominal_voltage 480;

};

object meter{
	name meter_14;
	phases AN;
	nominal_voltage 480;

};

object meter{
	name meter_15;
	phases BN;
	nominal_voltage 480;

};

object meter{
	name meter_16;
	phases BN;
	nominal_voltage 480;

};

object meter{
	name meter_17;
	phases BN;
	nominal_voltage 480;

};

object meter{
	name meter_18;
	phases ABCN;
	nominal_voltage 480;

};

object meter{
	name meter_19;
	phases AN;
	nominal_voltage 480;

};

object meter{
	name meter_20;
	phases ABCN;
	nominal_voltage 480;

};

object meter{
	name meter_21;
	phases ABCN;
	nominal_voltage 480;

};

object meter{
	name meter_22;
	phases ABCN;
	nominal_voltage 7200;
	voltage_A 7200+0.0j;
	voltage_B -3600-6235j;
	voltage_C -3600+6235j;

	object recorder{
		file total_power_network_node.csv;
		//flags DELTAMODE;
		interval 300;
		property measured_power,measured_real_power;
	
	};
	
};

object node{
	name node_1;
	phases ABCN;
	voltage_A 7200+0.0j;
	voltage_B -3600-6235j;
	voltage_C -3600+6235j;
	nominal_voltage 7200;

};

object node{
	name node_2;
	phases ABCN;
	voltage_A 7200+0.0j;
	voltage_B -3600-6235j;
	voltage_C -3600+6235j;
	nominal_voltage 7200;

};

object node{
	name node_3;
	phases ABCN;
	voltage_A 7200+0.0j;
	voltage_B -3600-6235j;
	voltage_C -3600+6235j;
	nominal_voltage 7200;

};

object node{
	name node_4;
	phases ABCN;
	voltage_A 7200+0.0j;
	voltage_B -3600-6235j;
	voltage_C -3600+6235j;
	nominal_voltage 7200;

};

object node{
	name node_5;
	phases ACN;
	voltage_A 7200+0.0j;
	voltage_C -3600+6235j;
	nominal_voltage 7200;

};

object node{
	name node_6;
	phases CN;
	voltage_C -3600+6235j;
	nominal_voltage 7200;

};

object node{
	name node_7;
	phases ABCN;
	voltage_A 7200+0.0j;
	voltage_B -3600-6235j;
	voltage_C -3600+6235j;
	nominal_voltage 7200;

};

object node{
	name node_8;
	phases ABCN;
	voltage_A 7200+0.0j;
	voltage_B -3600-6235j;
	voltage_C -3600+6235j;
	nominal_voltage 7200;

};

object node{
	name node_9;
	phases ABCN;
	voltage_A 7200+0.0j;
	voltage_B -3600-6235j;
	voltage_C -3600+6235j;
	nominal_voltage 7200;

};

object node{
	name node_10;
	phases ABCN;
	voltage_A 7200+0.0j;
	voltage_B -3600-6235j;
	voltage_C -3600+6235j;
	nominal_voltage 7200;

};

object node{
	name node_11;
	phases ACN;
	voltage_A 7200+0.0j;
	voltage_C -3600+6235j;
	nominal_voltage 7200;

};

object node{
	name node_12;
	phases CN;
	voltage_C -3600+6235j;
	nominal_voltage 7200;

};

object node{
	name node_13;
	phases ACN;
	voltage_A 7200+0.0j;
	voltage_C -3600+6235j;
	nominal_voltage 7200;

};

object node{
	name node_14;
	phases CN;
	voltage_C -3600+6235j;
	nominal_voltage 7200;

};

object node{
	name node_15;
	phases ABCN;
	voltage_A 7200+0.0j;
	voltage_B -3600-6235j;
	voltage_C -3600+6235j;
	nominal_voltage 7200;

};

object node{
	name node_16;
	phases ABCN;
	voltage_A 7200+0.0j;
	voltage_B -3600-6235j;
	voltage_C -3600+6235j;
	nominal_voltage 7200;

};

object node{
	name node_17;
	phases ABCN;
	voltage_A 7200+0.0j;
	voltage_B -3600-6235j;
	voltage_C -3600+6235j;
	nominal_voltage 7200;

};

object node{
	name node_18;
	phases ABCN;
	voltage_A 7200+0.0j;
	voltage_B -3600-6235j;
	voltage_C -3600+6235j;
	nominal_voltage 7200;

};

object node{
	name node_19;
	phases ABCN;
	voltage_A 7200+0.0j;
	voltage_B -3600-6235j;
	voltage_C -3600+6235j;
	nominal_voltage 7200;

};

object node{
	name node_20;
	phases AN;
	voltage_A 7200+0.0j;
	nominal_voltage 7200;

};

object node{
	name node_21;
	phases ABCN;
	voltage_A 7200+0.0j;
	voltage_B -3600-6235j;
	voltage_C -3600+6235j;
	nominal_voltage 7200;

};

object node{
	name node_22;
	phases ABCN;
	voltage_A 7200+0.0j;
	voltage_B -3600-6235j;
	voltage_C -3600+6235j;
	nominal_voltage 7200;

};

object node{
	name node_23;
	phases BCN;
	voltage_B -3600-6235j;
	voltage_C -3600+6235j;
	nominal_voltage 7200;

};

object node{
	name node_24;
	phases BN;
	voltage_B -3600-6235j;
	nominal_voltage 7200;

};

object node{
	name node_25;
	phases BCN;
	voltage_B -3600-6235j;
	voltage_C -3600+6235j;
	nominal_voltage 7200;

};

object node{
	name node_26;
	phases BCN;
	voltage_B -3600-6235j;
	voltage_C -3600+6235j;
	nominal_voltage 7200;

};

object node{
	name node_27;
	phases ABCN;
	voltage_A 7200+0.0j;
	voltage_B -3600-6235j;
	voltage_C -3600+6235j;
	nominal_voltage 7200;

};

object node{
	name node_28;
	phases AN;
	voltage_A 7200+0.0j;
	nominal_voltage 7200;

};

object node{
	name node_29;
	phases AN;
	voltage_A 7200+0.0j;
	nominal_voltage 7200;

};

object node{
	name node_30;
	phases AN;
	voltage_A 7200+0.0j;
	nominal_voltage 7200;

};

object node{
	name node_31;
	phases ABCN;
	voltage_A 7200+0.0j;
	voltage_B -3600-6235j;
	voltage_C -3600+6235j;
	nominal_voltage 7200;

};

object node{
	name node_32;
	phases ABCN;
	voltage_A 7200+0.0j;
	voltage_B -3600-6235j;
	voltage_C -3600+6235j;
	nominal_voltage 7200;

};

object node{
	name node_33;
	phases AN;
	voltage_A 7200+0.0j;
	nominal_voltage 7200;

};

object node{
	name node_34;
	phases ABCN;
	voltage_A 7200+0.0j;
	voltage_B -3600-6235j;
	voltage_C -3600+6235j;
	nominal_voltage 7200;

};

object node{
	name node_35;
	phases ABCN;
	voltage_A 7200+0.0j;
	voltage_B -3600-6235j;
	voltage_C -3600+6235j;
	nominal_voltage 7200;

};

object node{
	name node_36;
	phases ABCN;
	voltage_A 7200+0.0j;
	voltage_B -3600-6235j;
	voltage_C -3600+6235j;
	nominal_voltage 7200;

};

object node{
	name node_37;
	phases BN;
	voltage_B -3600-6235j;
	nominal_voltage 7200;

};

object node{
	name node_38;
	phases BN;
	voltage_B -3600-6235j;
	nominal_voltage 7200;

};

object node{
	name node_39;
	phases BN;
	voltage_B -3600-6235j;
	nominal_voltage 7200;

};

object node{
	name node_40;
	phases BN;
	voltage_B -3600-6235j;
	nominal_voltage 7200;

};

object node{
	name node_41;
	phases ABCN;
	voltage_A 7200+0.0j;
	voltage_B -3600-6235j;
	voltage_C -3600+6235j;
	nominal_voltage 7200;

};

object node{
	name node_42;
	phases ABCN;
	voltage_A 7200+0.0j;
	voltage_B -3600-6235j;
	voltage_C -3600+6235j;
	nominal_voltage 7200;

};

object node{
	name node_43;
	phases ABCN;
	voltage_A 7200+0.0j;
	voltage_B -3600-6235j;
	voltage_C -3600+6235j;
	nominal_voltage 7200;

};

object node{
	name node_44;
	phases AN;
	voltage_A 7200+0.0j;
	nominal_voltage 7200;

};

object node{
	name node_45;
	phases ABCN;
	voltage_A 7200+0.0j;
	voltage_B -3600-6235j;
	voltage_C -3600+6235j;
	nominal_voltage 7200;

};

object node{
	name node_46;
	phases ABCN;
	voltage_A 7200+0.0j;
	voltage_B -3600-6235j;
	voltage_C -3600+6235j;
	nominal_voltage 7200;

};

object node{
	name node_47;
	phases ABCN;
	voltage_A 7200+0.0j;
	voltage_B -3600-6235j;
	voltage_C -3600+6235j;
	nominal_voltage 7200;

};

object node{
	name node_48;
	phases ABCN;
	voltage_A 7200+0.0j;
	voltage_B -3600-6235j;
	voltage_C -3600+6235j;
	nominal_voltage 7200;

};

object node{
	name node_49;
	phases ABCN;
	voltage_A 7200+0.0j;
	voltage_B -3600-6235j;
	voltage_C -3600+6235j;
	nominal_voltage 7200;

};

object node{
	name node_50;
	phases ABCN;
	voltage_A 7200+0.0j;
	voltage_B -3600-6235j;
	voltage_C -3600+6235j;
	nominal_voltage 7200;

};

object node{
	name node_51;
	phases ABCN;
	voltage_A 7200+0.0j;
	voltage_B -3600-6235j;
	voltage_C -3600+6235j;
	nominal_voltage 7200;

};

object node{
	name node_52;
	parent meter_22;
	phases ABCN;
	voltage_A 7200+0.0j;
	voltage_B -3600-6235j;
	voltage_C -3600+6235j;
	nominal_voltage 7200;

};

object node{
	name node_53;
	phases ABCN;
	nominal_voltage 7200;
	voltage_A 7200+0.0j;
	voltage_B -3600-6235j;
	voltage_C -3600+6235j;

};

object overhead_line{
	groupid Distribution_Line;
	name ol_1;
	phases ABCN;
	from node_3;
	to node_4;
	length 387.401;
	configuration line_configuration_18;

};

object overhead_line{
	groupid Distribution_Line;
	name ol_2;
	phases ACN;
	from node_4;
	to node_5;
	length 68.936;
	configuration line_configuration_19;

};

object overhead_line{
	groupid Distribution_Line;
	name ol_3;
	phases CN;
	from node_4;
	to node_6;
	length 157.766;
	configuration line_configuration_20;

};

object overhead_line{
	groupid Distribution_Line;
	name ol_4;
	phases ABCN;
	from node_4;
	to node_7;
	length 139.494;
	configuration line_configuration_18;

};

object overhead_line{
	groupid Distribution_Line;
	name ol_5;
	phases ABCN;
	from node_7;
	to node_8;
	length 1260.546;
	configuration line_configuration_18;

};

object overhead_line{
	groupid Distribution_Line;
	name ol_6;
	phases ABCN;
	from node_8;
	to node_9;
	length 633.806;
	configuration line_configuration_18;

};

object overhead_line{
	groupid Distribution_Line;
	name ol_7;
	phases ABCN;
	from node_9;
	to node_10;
	length 237.576;
	configuration line_configuration_21;

};

object overhead_line{
	groupid Distribution_Line;
	name ol_8;
	phases ACN;
	from node_8;
	to node_11;
	length 749.489;
	configuration line_configuration_22;

};

object overhead_line{
	groupid Distribution_Line;
	name ol_9;
	phases CN;
	from node_11;
	to node_12;
	length 122.880;
	configuration line_configuration_23;

};

object overhead_line{
	groupid Distribution_Line;
	name ol_10;
	phases ACN;
	from node_11;
	to node_13;
	length 245.725;
	configuration line_configuration_19;

};

object overhead_line{
	groupid Distribution_Line;
	name ol_11;
	phases CN;
	from node_13;
	to node_14;
	length 275.331;
	configuration line_configuration_23;

};

object overhead_line{
	groupid Distribution_Line;
	name ol_12;
	phases ABCN;
	from node_8;
	to node_15;
	length 275.240;
	configuration line_configuration_18;

};

object overhead_line{
	groupid Distribution_Line;
	name ol_13;
	phases ABCN;
	from node_15;
	to node_16;
	length 63.897;
	configuration line_configuration_18;

};

object overhead_line{
	groupid Distribution_Line;
	name ol_14;
	phases ABCN;
	from node_17;
	to node_18;
	length 1499.769;
	configuration line_configuration_24;

};

object overhead_line{
	groupid Distribution_Line;
	name ol_15;
	phases ABCN;
	from node_18;
	to node_19;
	length 485.017;
	configuration line_configuration_24;

};

object overhead_line{
	groupid Distribution_Line;
	name ol_16;
	phases ABCN;
	from node_19;
	to node_21;
	length 275.614;
	configuration line_configuration_26;

};

object overhead_line{
	groupid Distribution_Line;
	name ol_17;
	phases ABCN;
	from node_21;
	to node_22;
	length 165.147;
	configuration line_configuration_27;

};

object overhead_line{
	groupid Distribution_Line;
	name ol_18;
	phases BCN;
	from node_25;
	to node_26;
	length 497.233;
	configuration line_configuration_30;

};

object overhead_line{
	groupid Distribution_Line;
	name ol_19;
	phases ABCN;
	from node_18;
	to node_27;
	length 734.441;
	configuration line_configuration_27;

};

object overhead_line{
	groupid Distribution_Line;
	name ol_20;
	phases AN;
	from node_28;
	to node_29;
	length 111.674;
	configuration line_configuration_32;

};

object overhead_line{
	groupid Distribution_Line;
	name ol_21;
	phases AN;
	from node_28;
	to node_30;
	length 174.016;
	configuration line_configuration_32;

};

object overhead_line{
	groupid Distribution_Line;
	name ol_22;
	phases ABCN;
	from node_27;
	to node_31;
	length 229.262;
	configuration line_configuration_27;

};

object overhead_line{
	groupid Distribution_Line;
	name ol_23;
	phases ABCN;
	from node_31;
	to node_32;
	length 234.203;
	configuration line_configuration_18;

};

object overhead_line{
	groupid Distribution_Line;
	name ol_24;
	phases ABCN;
	from node_32;
	to node_34;
	length 693.760;
	configuration line_configuration_18;

};

object overhead_line{
	groupid Distribution_Line;
	name ol_25;
	phases ABCN;
	from node_35;
	to node_36;
	length 277.512;
	configuration line_configuration_27;

};

object overhead_line{
	groupid Distribution_Line;
	name ol_26;
	phases ABCN;
	from node_35;
	to node_41;
	length 428.598;
	configuration line_configuration_21;

};

object overhead_line{
	groupid Distribution_Line;
	name ol_27;
	phases ABCN;
	from node_41;
	to node_42;
	length 208.252;
	configuration line_configuration_24;

};

object overhead_line{
	groupid Distribution_Line;
	name ol_28;
	phases ABCN;
	from node_41;
	to node_43;
	length 288.056;
	configuration line_configuration_24;

};

object overhead_line{
	groupid Distribution_Line;
	name ol_29;
	phases AN;
	from node_43;
	to node_44;
	length 127.857;
	configuration line_configuration_31;

};

object overhead_line{
	groupid Distribution_Line;
	name ol_30;
	phases ABCN;
	from node_43;
	to node_45;
	length 103.017;
	configuration line_configuration_27;

};

object switch{
	name switch_1;
	phases ABCN;
	from node_52;
	to node_2;
	status CLOSED;

};

object switch{
	name switch_2;
	phases ABCN;
	from node_9;
	to node_51;
	status CLOSED;

};

object switch{
	name switch_3;
	phases ABCN;
	from node_15;
	to node_49;
	status CLOSED;

};

object switch{
	name switch_4;
	phases ABCN;
	from node_15;
	to node_17;
	status CLOSED;

};

object switch{
	name switch_5;
	phases ABCN;
	from node_34;
	to node_1;
	status CLOSED;

};

object switch{
	name switch_6;
	phases ABCN;
	from node_34;
	to node_50;
	status CLOSED;

};

object transformer{
	groupid Distribution_Trans;
	name xfmr_1;
	phases BS;
	from node_40;
	to tn_1;
	configuration transformer_configuration_132;

};

object transformer{
	groupid Distribution_Trans;
	name xfmr_2;
	phases CN;
	from node_6;
	to meter_1;
	configuration transformer_configuration_134;

};

object transformer{
	groupid Distribution_Trans;
	name xfmr_3;
	phases ABCN;
	from node_10;
	to meter_2;
	configuration transformer_configuration_135;

};

object transformer{
	groupid Distribution_Trans;
	name xfmr_4;
	phases ACN;
	from node_11;
	to meter_3;
	configuration transformer_configuration_136;

};

object transformer{
	groupid Distribution_Trans;
	name xfmr_5;
	phases CN;
	from node_12;
	to meter_4;
	configuration transformer_configuration_137;

};

object transformer{
	groupid Distribution_Trans;
	name xfmr_6;
	phases CN;
	from node_14;
	to meter_5;
	configuration transformer_configuration_137;

};

object transformer{
	groupid Distribution_Trans;
	name xfmr_7;
	phases ABCN;
	from node_18;
	to meter_6;
	configuration transformer_configuration_138;

};

object transformer{
	groupid Distribution_Trans;
	name xfmr_8;
	phases AN;
	from node_20;
	to meter_7;
	configuration transformer_configuration_139;

};

object transformer{
	groupid Distribution_Trans;
	name xfmr_9;
	phases ABCN;
	from node_22;
	to meter_8;
	configuration transformer_configuration_140;

};

object transformer{
	groupid Distribution_Trans;
	name xfmr_10;
	phases BN;
	from node_24;
	to meter_9;
	configuration transformer_configuration_141;

};

object transformer{
	groupid Distribution_Trans;
	name xfmr_11;
	phases ABCN;
	from node_27;
	to meter_10;
	configuration transformer_configuration_142;

};

object transformer{
	groupid Distribution_Trans;
	name xfmr_12;
	phases AN;
	from node_28;
	to meter_11;
	configuration transformer_configuration_143;

};

object transformer{
	groupid Distribution_Trans;
	name xfmr_13;
	phases AN;
	from node_29;
	to meter_12;
	configuration transformer_configuration_144;

};

object transformer{
	groupid Distribution_Trans;
	name xfmr_14;
	phases AN;
	from node_30;
	to meter_13;
	configuration transformer_configuration_144;

};

object transformer{
	groupid Distribution_Trans;
	name xfmr_15;
	phases AN;
	from node_33;
	to meter_14;
	configuration transformer_configuration_144;

};

object transformer{
	groupid Distribution_Trans;
	name xfmr_16;
	phases BN;
	from node_37;
	to meter_15;
	configuration transformer_configuration_145;

};

object transformer{
	groupid Distribution_Trans;
	name xfmr_17;
	phases BN;
	from node_38;
	to meter_16;
	configuration transformer_configuration_146;

};

object transformer{
	groupid Distribution_Trans;
	name xfmr_18;
	phases BN;
	from node_39;
	to meter_17;
	configuration transformer_configuration_145;

};

object transformer{
	groupid Distribution_Trans;
	name xfmr_19;
	phases ABCN;
	from node_42;
	to meter_18;
	configuration transformer_configuration_147;

};

object transformer{
	groupid Distribution_Trans;
	name xfmr_20;
	phases AN;
	from node_44;
	to meter_19;
	configuration transformer_configuration_144;

};

object transformer{
	groupid Distribution_Trans;
	name xfmr_21;
	phases ABCN;
	from node_47;
	to meter_20;
	configuration transformer_configuration_148;

};

object transformer{
	groupid Distribution_Trans;
	name xfmr_22;
	phases ABCN;
	from node_48;
	to meter_21;
	configuration transformer_configuration_140;

};

object triplex_line{
	groupid Triplex_Line;
	name tl_1;
	phases BS;
	from tn_1;
	to tm_1;
	length 30;
	configuration triplex_line_configuration_1;

};

object triplex_meter{
	name tm_1;
	phases BS;
	voltage_1 -60-103.92j;
	voltage_2 -60-103.92j;
	voltage_N 0;
	nominal_voltage 120;

};

object triplex_node{
	name tn_1;
	phases BS;
	voltage_1 -60-103.92j;
	voltage_2 -60-103.92j;
	voltage_N 0;
	nominal_voltage 120;

};

object triplex_node{
	name tn_2;
	phases BS;
	parent tm_1;
	voltage_1 -60-103.92j;
	voltage_2 -60-103.92j;
	voltage_N 0;
	nominal_voltage 120;

};

object underground_line{
	groupid Distribution_Line;
	name ul_1;
	phases ABCN;
	from node_2;
	to node_3;
	length 84.593;
	configuration line_configuration_17;

};

object underground_line{
	groupid Distribution_Line;
	name ul_2;
	phases BN;
	from node_23;
	to node_24;
	length 160.451;
	configuration line_configuration_29;

};

object underground_line{
	groupid Distribution_Line;
	name ul_3;
	phases BCN;
	from node_23;
	to node_25;
	length 190.827;
	configuration line_configuration_28;

};

object underground_line{
	groupid Distribution_Line;
	name ul_4;
	phases BN;
	from node_37;
	to node_38;
	length 165.500;
	configuration line_configuration_29;

};

object underground_line{
	groupid Distribution_Line;
	name ul_5;
	phases BN;
	from node_37;
	to node_39;
	length 74.300;
	configuration line_configuration_29;

};

object underground_line{
	groupid Distribution_Line;
	name ul_6;
	phases ABCN;
	from node_45;
	to node_46;
	length 202.409;
	configuration line_configuration_33;

};

object underground_line{
	groupid Distribution_Line;
	name ul_7;
	phases ABCN;
	from node_46;
	to node_47;
	length 131.003;
	configuration line_configuration_33;

};

object underground_line{
	groupid Distribution_Line;
	name ul_8;
	phases ABCN;
	from node_46;
	to node_48;
	length 258.143;
	configuration line_configuration_33;

};

object triplex_meter{
	phases BS;
	name tpm1_tm_1;
	parent tm_1;
	groupid Residential_Meter;
	meter_power_consumption 2+11j;
	bill_mode HOURLY;
	monthly_fee 10.00;
	bill_day 1;
	power_market Market_1;
	nominal_voltage 120;

};

object house{
	parent tpm1_tm_1;
	name house1_tm_1;
	groupid Residential;
	schedule_skew 1083;
	floor_area 2500;
	number_of_stories 1;
	ceiling_height 8;
	over_sizing_factor 0.1;
	//Thermal integrity -> Single Family 7;
	Rroof 50.34;
	Rwall 27.33;
	Rfloor 35.59;
	glazing_layers 3;
	glass_type 2;
	glazing_treatment 2;
	window_frame 4;
	Rdoors 10.51;
	airchange_per_hour 0.23;
	cooling_COP 3.8;
	air_temperature 71.22;
	mass_temperature 71.22;
	total_thermal_mass_per_floor_area 3.504;
	heating_system_type GAS;
	cooling_system_type NONE;
	breaker_amps 1000;
	hvac_breaker_rating 1000;
	cooling_setpoint cooling6*1.59+69.19;
	heating_setpoint heating6*0.35+59.01;

	object ZIPload{
		name house1_resp_tn_2;
		// Responsive load;
		schedule_skew 1083;
		base_power responsive_loads*1.06;
		heatgain_fraction 0.900;
		power_pf 1.000;
		current_pf 1.000;
		impedance_pf 1.000;
		impedance_fraction 0.200000;
		current_fraction 0.400000;
		power_fraction 0.400000;
	
	};
	
	object ZIPload{
		// Unresponsive load;
		schedule_skew 1083;
		base_power unresponsive_loads*0.97;
		heatgain_fraction 0.900;
		power_pf 1.000;
		current_pf 1.000;
		impedance_pf 1.000;
		impedance_fraction 0.200000;
		current_fraction 0.400000;
		power_fraction 0.400000;
	
	};
	
	object waterheater{
		schedule_skew 4326;
		heating_element_capacity 4.5 kW;
		tank_setpoint 132.7;
		temperature 132;
		thermostat_deadband 7.8;
		location INSIDE;
		tank_UA 3.7;
		demand large_6*0.99;
		tank_volume 50;
	
		object passive_controller{
			period 300;
			control_mode PROBABILITY_OFF;
			distribution_type NORMAL;
			observation_object Market_1;
			observation_property past_market.clearing_price;
			stdev_observation_property current_price_stdev_1h;
			expectation_object Market_1;
			expectation_property current_price_mean_1h;
			comfort_level 0.51;
			state_property override;
			name passive_control_0;
		
		};
		
	};
	
};

object triplex_meter{
	phases BS;
	name tpm2_tm_1;
	parent tm_1;
	groupid Residential_Meter;
	meter_power_consumption 2+11j;
	bill_mode HOURLY;
	monthly_fee 10.00;
	bill_day 1;
	power_market Market_1;
	nominal_voltage 120;

};

object house{
	parent tpm2_tm_1;
	name house2_tm_1;
	groupid Residential;
	schedule_skew 3482;
	floor_area 2119;
	number_of_stories 1;
	ceiling_height 8;
	over_sizing_factor 0.1;
	//Thermal integrity -> Single Family 2;
	Rroof 18.57;
	Rwall 10.39;
	Rfloor 11.75;
	glazing_layers 2;
	glass_type 1;
	glazing_treatment 1;
	window_frame 1;
	Rdoors 3.02;
	airchange_per_hour 0.80;
	cooling_COP 2.6;
	air_temperature 69.73;
	mass_temperature 69.73;
	total_thermal_mass_per_floor_area 2.978;
	heating_system_type GAS;
	cooling_system_type NONE;
	breaker_amps 1000;
	hvac_breaker_rating 1000;
	cooling_setpoint cooling7*1.36+79.84;
	heating_setpoint heating1*0.87+60.99;

	object ZIPload{
		name house2_resp_tn_2;
		// Responsive load;
		schedule_skew 3482;
		base_power responsive_loads*0.91;
		heatgain_fraction 0.900;
		power_pf 1.000;
		current_pf 1.000;
		impedance_pf 1.000;
		impedance_fraction 0.200000;
		current_fraction 0.400000;
		power_fraction 0.400000;
	
	};
	
	object ZIPload{
		// Unresponsive load;
		schedule_skew 3482;
		base_power unresponsive_loads*1.25;
		heatgain_fraction 0.900;
		power_pf 1.000;
		current_pf 1.000;
		impedance_pf 1.000;
		impedance_fraction 0.200000;
		current_fraction 0.400000;
		power_fraction 0.400000;
	
	};
	
	object waterheater{
		schedule_skew 730;
		heating_element_capacity 4.5 kW;
		tank_setpoint 120.3;
		temperature 132;
		thermostat_deadband 6.1;
		location INSIDE;
		tank_UA 3.5;
		demand large_4*0.96;
		tank_volume 40;
	
		object passive_controller{
			period 300;
			control_mode PROBABILITY_OFF;
			distribution_type NORMAL;
			observation_object Market_1;
			observation_property past_market.clearing_price;
			stdev_observation_property current_price_stdev_1h;
			expectation_object Market_1;
			expectation_property current_price_mean_1h;
			comfort_level 0.43;
			state_property override;
			name passive_control_1;
		
		};
		
	};
	
};

object triplex_meter{
	phases BS;
	name tpm3_tm_1;
	parent tm_1;
	groupid Residential_Meter;
	meter_power_consumption 2+11j;
	bill_mode HOURLY;
	monthly_fee 10.00;
	bill_day 1;
	power_market Market_1;
	nominal_voltage 120;

};

object house{
	parent tpm3_tm_1;
	name house3_tm_1;
	groupid Residential;
	schedule_skew 586;
	floor_area 1014;
	number_of_stories 1;
	ceiling_height 10;
	over_sizing_factor 0.1;
	//Thermal integrity -> Single Family 1;
	Rroof 12.90;
	Rwall 10.70;
	Rfloor 9.93;
	glazing_layers 1;
	glass_type 1;
	glazing_treatment 1;
	window_frame 1;
	Rdoors 2.42;
	airchange_per_hour 0.88;
	cooling_COP 2.6;
	air_temperature 69.95;
	mass_temperature 69.95;
	total_thermal_mass_per_floor_area 2.941;
	heating_system_type GAS;
	cooling_system_type ELECTRIC;
	breaker_amps 1000;
	hvac_breaker_rating 1000;
	heating_setpoint heating3*0.19+63.94;

	object controller{
		schedule_skew 586;
		market Market_1;
		bid_mode ON;
		control_mode RAMP;
		range_high 3.148;
		range_low -0.005;
		ramp_high 2.370;
		ramp_low 2.370;
		base_setpoint cooling1*1.79+73.83;
		period 300;
		average_target current_price_mean_1h;
		standard_deviation_target current_price_stdev_1h;
		target air_temperature;
		setpoint cooling_setpoint;
		demand last_cooling_load;
		deadband thermostat_deadband;
		total hvac_load;
		load hvac_load;
		state power_state;
		name control_0;
		use_predictive_bidding TRUE;
	
	};
	
	object ZIPload{
		name house3_resp_tn_2;
		// Responsive load;
		schedule_skew 586;
		base_power responsive_loads*0.83;
		heatgain_fraction 0.900;
		power_pf 1.000;
		current_pf 1.000;
		impedance_pf 1.000;
		impedance_fraction 0.200000;
		current_fraction 0.400000;
		power_fraction 0.400000;
	
	};
	
	object ZIPload{
		// Unresponsive load;
		schedule_skew 586;
		base_power unresponsive_loads*0.91;
		heatgain_fraction 0.900;
		power_pf 1.000;
		current_pf 1.000;
		impedance_pf 1.000;
		impedance_fraction 0.200000;
		current_fraction 0.400000;
		power_fraction 0.400000;
	
	};
	
	object waterheater{
		schedule_skew 16286;
		heating_element_capacity 4.0 kW;
		tank_setpoint 126.2;
		temperature 132;
		thermostat_deadband 7.6;
		location INSIDE;
		tank_UA 3.9;
		demand large_2*0.96;
		tank_volume 50;
	
		object passive_controller{
			period 300;
			control_mode PROBABILITY_OFF;
			distribution_type NORMAL;
			observation_object Market_1;
			observation_property past_market.clearing_price;
			stdev_observation_property current_price_stdev_1h;
			expectation_object Market_1;
			expectation_property current_price_mean_1h;
			comfort_level 0.63;
			state_property override;
			name passive_control_2;
		
		};
		
	};
	
};

object triplex_meter{
	phases BS;
	name tpm4_tm_1;
	parent tm_1;
	groupid Residential_Meter;
	meter_power_consumption 2+11j;
	bill_mode HOURLY;
	monthly_fee 10.00;
	bill_day 1;
	power_market Market_1;
	nominal_voltage 120;

};

object house{
	parent tpm4_tm_1;
	name house4_tm_1;
	groupid Residential;
	schedule_skew -1718;
	floor_area 1643;
	number_of_stories 1;
	ceiling_height 8;
	over_sizing_factor 0.1;
	//Thermal integrity -> Single Family 3;
	Rroof 16.13;
	Rwall 11.44;
	Rfloor 19.16;
	glazing_layers 2;
	glass_type 1;
	glazing_treatment 1;
	window_frame 1;
	Rdoors 3.43;
	airchange_per_hour 0.41;
	cooling_COP 3.0;
	air_temperature 69.71;
	mass_temperature 69.71;
	total_thermal_mass_per_floor_area 2.960;
	heating_system_type GAS;
	cooling_system_type NONE;
	breaker_amps 1000;
	hvac_breaker_rating 1000;
	cooling_setpoint cooling8*1.59+71.00;
	heating_setpoint heating2*0.05+59.04;

	object ZIPload{
		name house4_resp_tn_2;
		// Responsive load;
		schedule_skew -1718;
		base_power responsive_loads*0.85;
		heatgain_fraction 0.900;
		power_pf 1.000;
		current_pf 1.000;
		impedance_pf 1.000;
		impedance_fraction 0.200000;
		current_fraction 0.400000;
		power_fraction 0.400000;
	
	};
	
	object ZIPload{
		// Unresponsive load;
		schedule_skew -1718;
		base_power unresponsive_loads*0.78;
		heatgain_fraction 0.900;
		power_pf 1.000;
		current_pf 1.000;
		impedance_pf 1.000;
		impedance_fraction 0.200000;
		current_fraction 0.400000;
		power_fraction 0.400000;
	
	};
	
	object waterheater{
		schedule_skew -8003;
		heating_element_capacity 4.0 kW;
		tank_setpoint 133.0;
		temperature 132;
		thermostat_deadband 7.0;
		location INSIDE;
		tank_UA 2.1;
		demand large_1*1.04;
		tank_volume 50;
	
		object passive_controller{
			period 300;
			control_mode PROBABILITY_OFF;
			distribution_type NORMAL;
			observation_object Market_1;
			observation_property past_market.clearing_price;
			stdev_observation_property current_price_stdev_1h;
			expectation_object Market_1;
			expectation_property current_price_mean_1h;
			comfort_level 0.44;
			state_property override;
			name passive_control_3;
		
		};
		
	};
	
};

object triplex_meter{
	phases BS;
	name tpm5_tm_1;
	parent tm_1;
	groupid Residential_Meter;
	meter_power_consumption 2+11j;
	bill_mode HOURLY;
	monthly_fee 10.00;
	bill_day 1;
	power_market Market_1;
	nominal_voltage 120;

};

object house{
	parent tpm5_tm_1;
	name house5_tm_1;
	groupid Residential;
	schedule_skew -1053;
	floor_area 2216;
	number_of_stories 1;
	ceiling_height 8;
	over_sizing_factor 0.1;
	//Thermal integrity -> Single Family 7;
	Rroof 44.86;
	Rwall 30.27;
	Rfloor 34.39;
	glazing_layers 3;
	glass_type 2;
	glazing_treatment 2;
	window_frame 4;
	Rdoors 11.21;
	airchange_per_hour 0.20;
	cooling_COP 4.0;
	air_temperature 70.10;
	mass_temperature 70.10;
	total_thermal_mass_per_floor_area 3.757;
	heating_system_type GAS;
	cooling_system_type NONE;
	breaker_amps 1000;
	hvac_breaker_rating 1000;
	cooling_setpoint cooling7*0.88+85.96;
	heating_setpoint heating5*0.82+73.50;

	object ZIPload{
		name house5_resp_tn_2;
		// Responsive load;
		schedule_skew -1053;
		base_power responsive_loads*1.12;
		heatgain_fraction 0.900;
		power_pf 1.000;
		current_pf 1.000;
		impedance_pf 1.000;
		impedance_fraction 0.200000;
		current_fraction 0.400000;
		power_fraction 0.400000;
	
	};
	
	object ZIPload{
		// Unresponsive load;
		schedule_skew -1053;
		base_power unresponsive_loads*1.12;
		heatgain_fraction 0.900;
		power_pf 1.000;
		current_pf 1.000;
		impedance_pf 1.000;
		impedance_fraction 0.200000;
		current_fraction 0.400000;
		power_fraction 0.400000;
	
	};
	
	object ZIPload{
		name house5_ppump_tn_2;
		// Pool Pump;
		schedule_skew 739418;
		base_power pool_pump_season*1.44;
		duty_cycle 0.22;
		phase 0.26;
		period 4.96;
		heatgain_fraction 0.0;
		power_pf 1.000;
		current_pf 1.000;
		impedance_pf 1.000;
		impedance_fraction 0.200000;
		current_fraction 0.400000;
		power_fraction 0.400000;
		is_240 TRUE;
		recovery_duty_cycle 0.27;
	
		object passive_controller{
			period 300;
			control_mode DUTYCYCLE;
			pool_pump_model true;
			observation_object Market_1;
			observation_property past_market.clearing_price;
			state_property override;
			base_duty_cycle 0.22;
			setpoint duty_cycle;
			first_tier_hours 12;
			second_tier_hours 12;
			first_tier_price 0.066115;
			second_tier_price 0.132229;
			name passive_control_4;
		
		};
		
	};
	
	object waterheater{
		schedule_skew 2089;
		heating_element_capacity 5.0 kW;
		tank_setpoint 127.1;
		temperature 132;
		thermostat_deadband 7.6;
		location INSIDE;
		tank_UA 3.5;
		demand large_5*0.95;
		tank_volume 30;
	
		object passive_controller{
			period 300;
			control_mode PROBABILITY_OFF;
			distribution_type NORMAL;
			observation_object Market_1;
			observation_property past_market.clearing_price;
			stdev_observation_property current_price_stdev_1h;
			expectation_object Market_1;
			expectation_property current_price_mean_1h;
			comfort_level 0.26;
			state_property override;
			name passive_control_5;
		
		};
		
	};
	
};

object triplex_meter{
	phases BS;
	name tpm6_tm_1;
	parent tm_1;
	groupid Residential_Meter;
	meter_power_consumption 2+11j;
	bill_mode HOURLY;
	monthly_fee 10.00;
	bill_day 1;
	power_market Market_1;
	nominal_voltage 120;

};

object house{
	parent tpm6_tm_1;
	name house6_tm_1;
	groupid Residential;
	schedule_skew 1650;
	floor_area 1664;
	number_of_stories 2;
	ceiling_height 9;
	over_sizing_factor 0.1;
	//Thermal integrity -> Single Family 1;
	Rroof 13.17;
	Rwall 8.78;
	Rfloor 9.08;
	glazing_layers 1;
	glass_type 1;
	glazing_treatment 1;
	window_frame 1;
	Rdoors 2.69;
	airchange_per_hour 0.63;
	cooling_COP 2.8;
	air_temperature 70.84;
	mass_temperature 70.84;
	total_thermal_mass_per_floor_area 2.529;
	heating_system_type GAS;
	cooling_system_type NONE;
	breaker_amps 1000;
	hvac_breaker_rating 1000;
	cooling_setpoint cooling6*0.90+71.00;
	heating_setpoint heating6*1.27+64.59;

	object ZIPload{
		name house6_resp_tn_2;
		// Responsive load;
		schedule_skew 1650;
		base_power responsive_loads*0.78;
		heatgain_fraction 0.900;
		power_pf 1.000;
		current_pf 1.000;
		impedance_pf 1.000;
		impedance_fraction 0.200000;
		current_fraction 0.400000;
		power_fraction 0.400000;
	
	};
	
	object ZIPload{
		// Unresponsive load;
		schedule_skew 1650;
		base_power unresponsive_loads*0.97;
		heatgain_fraction 0.900;
		power_pf 1.000;
		current_pf 1.000;
		impedance_pf 1.000;
		impedance_fraction 0.200000;
		current_fraction 0.400000;
		power_fraction 0.400000;
	
	};
	
	object ZIPload{
		name house6_ppump_tn_2;
		// Pool Pump;
		schedule_skew -34289;
		base_power pool_pump_season*1.71;
		duty_cycle 0.40;
		phase 0.82;
		period 5.59;
		heatgain_fraction 0.0;
		power_pf 1.000;
		current_pf 1.000;
		impedance_pf 1.000;
		impedance_fraction 0.200000;
		current_fraction 0.400000;
		power_fraction 0.400000;
		is_240 TRUE;
		recovery_duty_cycle 0.48;
	
		object passive_controller{
			period 300;
			control_mode DUTYCYCLE;
			pool_pump_model true;
			observation_object Market_1;
			observation_property past_market.clearing_price;
			state_property override;
			base_duty_cycle 0.40;
			setpoint duty_cycle;
			first_tier_hours 12;
			second_tier_hours 12;
			first_tier_price 0.066115;
			second_tier_price 0.132229;
			name passive_control_6;
		
		};
		
	};
	
	object waterheater{
		schedule_skew -4446;
		heating_element_capacity 4.0 kW;
		tank_setpoint 134.8;
		temperature 132;
		thermostat_deadband 6.2;
		location INSIDE;
		tank_UA 3.2;
		demand large_1*1.02;
		tank_volume 30;
	
		object passive_controller{
			period 300;
			control_mode PROBABILITY_OFF;
			distribution_type NORMAL;
			observation_object Market_1;
			observation_property past_market.clearing_price;
			stdev_observation_property current_price_stdev_1h;
			expectation_object Market_1;
			expectation_property current_price_mean_1h;
			comfort_level 0.36;
			state_property override;
			name passive_control_7;
		
		};
		
	};
	
};

object triplex_meter{
	phases BS;
	name tpm7_tm_1;
	parent tm_1;
	groupid Residential_Meter;
	meter_power_consumption 2+11j;
	bill_mode HOURLY;
	monthly_fee 10.00;
	bill_day 1;
	power_market Market_1;
	nominal_voltage 120;

};

object house{
	parent tpm7_tm_1;
	name house7_tm_1;
	groupid Residential;
	schedule_skew -3870;
	floor_area 2404;
	number_of_stories 1;
	ceiling_height 8;
	over_sizing_factor 0.1;
	//Thermal integrity -> Single Family 4;
	Rroof 29.02;
	Rwall 20.29;
	Rfloor 16.71;
	glazing_layers 2;
	glass_type 1;
	glazing_treatment 1;
	window_frame 2;
	Rdoors 3.54;
	airchange_per_hour 0.42;
	cooling_COP 3.1;
	air_temperature 71.81;
	mass_temperature 71.81;
	total_thermal_mass_per_floor_area 2.822;
	heating_system_type GAS;
	cooling_system_type ELECTRIC;
	breaker_amps 1000;
	hvac_breaker_rating 1000;
	heating_setpoint heating3*1.38+69.00;

	object controller{
		schedule_skew -3870;
		market Market_1;
		bid_mode ON;
		control_mode RAMP;
		range_high 3.854;
		range_low -0.005;
		ramp_high 2.229;
		ramp_low 2.229;
		base_setpoint cooling2*1.47+83.68;
		period 300;
		average_target current_price_mean_1h;
		standard_deviation_target current_price_stdev_1h;
		target air_temperature;
		setpoint cooling_setpoint;
		demand last_cooling_load;
		deadband thermostat_deadband;
		total hvac_load;
		load hvac_load;
		state power_state;
		name control_1;
		use_predictive_bidding TRUE;
	
	};
	
	object ZIPload{
		name house7_resp_tn_2;
		// Responsive load;
		schedule_skew -3870;
		base_power responsive_loads*1.27;
		heatgain_fraction 0.900;
		power_pf 1.000;
		current_pf 1.000;
		impedance_pf 1.000;
		impedance_fraction 0.200000;
		current_fraction 0.400000;
		power_fraction 0.400000;
	
	};
	
	object ZIPload{
		// Unresponsive load;
		schedule_skew -3870;
		base_power unresponsive_loads*1.31;
		heatgain_fraction 0.900;
		power_pf 1.000;
		current_pf 1.000;
		impedance_pf 1.000;
		impedance_fraction 0.200000;
		current_fraction 0.400000;
		power_fraction 0.400000;
	
	};
	
};

object triplex_meter{
	phases BS;
	name tpm8_tm_1;
	parent tm_1;
	groupid Residential_Meter;
	meter_power_consumption 2+11j;
	bill_mode HOURLY;
	monthly_fee 10.00;
	bill_day 1;
	power_market Market_1;
	nominal_voltage 120;

};

object house{
	parent tpm8_tm_1;
	name house8_tm_1;
	groupid Residential;
	schedule_skew -3843;
	floor_area 796;
	number_of_stories 1;
	ceiling_height 8;
	over_sizing_factor 0.1;
	//Thermal integrity -> Apartment 2;
	Rroof 17.51;
	Rwall 13.50;
	Rfloor 10.30;
	glazing_layers 2;
	glass_type 1;
	glazing_treatment 2;
	window_frame 2;
	Rdoors 2.31;
	airchange_per_hour 0.29;
	cooling_COP 2.7;
	air_temperature 68.13;
	mass_temperature 68.13;
	total_thermal_mass_per_floor_area 2.975;
	heating_system_type HEAT_PUMP;
	heating_COP 2.7;
	cooling_system_type ELECTRIC;
	auxiliary_strategy DEADBAND;
	auxiliary_system_type ELECTRIC;
	motor_model BASIC;
	motor_efficiency AVERAGE;
	breaker_amps 1000;
	hvac_breaker_rating 1000;
	cooling_setpoint 67.32;
	heating_setpoint 64.32;

	object controller{
		schedule_skew -3843;
		market Market_1;
		bid_mode ON;
		control_mode DOUBLE_RAMP;
		resolve_mode DEADBAND;
		heating_range_high -0.939;
		cooling_range_high 0.939;
		heating_range_low -0.005;
		cooling_range_low -0.005;
		heating_ramp_high -2.812;
		cooling_ramp_high 2.812;
		heating_ramp_low -2.812;
		cooling_ramp_low 2.812;
		cooling_base_setpoint cooling5*0.42+67.32;
		heating_base_setpoint heating4*0.23+59.86;
		period 300;
		average_target current_price_mean_1h;
		standard_deviation_target current_price_stdev_1h;
		target air_temperature;
		heating_setpoint heating_setpoint;
		heating_demand last_heating_load;
		cooling_setpoint cooling_setpoint;
		cooling_demand last_cooling_load;
		deadband thermostat_deadband;
		total hvac_load;
		load hvac_load;
		state power_state;
		name control_2;
		use_predictive_bidding TRUE;
	
	};
	
	object ZIPload{
		name house8_resp_tn_2;
		// Responsive load;
		schedule_skew -3843;
		base_power responsive_loads*0.71;
		heatgain_fraction 0.900;
		power_pf 1.000;
		current_pf 1.000;
		impedance_pf 1.000;
		impedance_fraction 0.200000;
		current_fraction 0.400000;
		power_fraction 0.400000;
	
	};
	
	object ZIPload{
		// Unresponsive load;
		schedule_skew -3843;
		base_power unresponsive_loads*0.70;
		heatgain_fraction 0.900;
		power_pf 1.000;
		current_pf 1.000;
		impedance_pf 1.000;
		impedance_fraction 0.200000;
		current_fraction 0.400000;
		power_fraction 0.400000;
	
	};
	
	object waterheater{
		schedule_skew 548;
		heating_element_capacity 4.0 kW;
		tank_setpoint 126.3;
		temperature 132;
		thermostat_deadband 4.2;
		location INSIDE;
		tank_UA 2.8;
		demand large_5*1.02;
		tank_volume 40;
	
		object passive_controller{
			period 300;
			control_mode PROBABILITY_OFF;
			distribution_type NORMAL;
			observation_object Market_1;
			observation_property past_market.clearing_price;
			stdev_observation_property current_price_stdev_1h;
			expectation_object Market_1;
			expectation_property current_price_mean_1h;
			comfort_level 0.19;
			state_property override;
			name passive_control_8;
		
		};
		
	};
	
};

object triplex_meter{
	phases BS;
	name tpm9_tm_1;
	parent tm_1;
	groupid Residential_Meter;
	meter_power_consumption 2+11j;
	bill_mode HOURLY;
	monthly_fee 10.00;
	bill_day 1;
	power_market Market_1;
	nominal_voltage 120;

};

object house{
	parent tpm9_tm_1;
	name house9_tm_1;
	groupid Residential;
	schedule_skew 308;
	floor_area 2260;
	number_of_stories 1;
	ceiling_height 8;
	over_sizing_factor 0.1;
	//Thermal integrity -> Single Family 7;
	Rroof 48.11;
	Rwall 26.70;
	Rfloor 29.55;
	glazing_layers 3;
	glass_type 2;
	glazing_treatment 2;
	window_frame 4;
	Rdoors 12.63;
	airchange_per_hour 0.22;
	cooling_COP 3.8;
	air_temperature 68.77;
	mass_temperature 68.77;
	total_thermal_mass_per_floor_area 2.641;
	heating_system_type GAS;
	cooling_system_type NONE;
	breaker_amps 1000;
	hvac_breaker_rating 1000;
	cooling_setpoint cooling4*1.56+71.00;
	heating_setpoint heating2*1.54+67.06;

	object ZIPload{
		name house9_resp_tn_2;
		// Responsive load;
		schedule_skew 308;
		base_power responsive_loads*1.16;
		heatgain_fraction 0.900;
		power_pf 1.000;
		current_pf 1.000;
		impedance_pf 1.000;
		impedance_fraction 0.200000;
		current_fraction 0.400000;
		power_fraction 0.400000;
	
	};
	
	object ZIPload{
		// Unresponsive load;
		schedule_skew 308;
		base_power unresponsive_loads*1.11;
		heatgain_fraction 0.900;
		power_pf 1.000;
		current_pf 1.000;
		impedance_pf 1.000;
		impedance_fraction 0.200000;
		current_fraction 0.400000;
		power_fraction 0.400000;
	
	};
	
	object ZIPload{
		name house9_ppump_tn_2;
		// Pool Pump;
		schedule_skew 242547;
		base_power pool_pump_season*1.58;
		duty_cycle 0.17;
		phase 0.62;
		period 7.73;
		heatgain_fraction 0.0;
		power_pf 1.000;
		current_pf 1.000;
		impedance_pf 1.000;
		impedance_fraction 0.200000;
		current_fraction 0.400000;
		power_fraction 0.400000;
		is_240 TRUE;
		recovery_duty_cycle 0.20;
	
		object passive_controller{
			period 300;
			control_mode DUTYCYCLE;
			pool_pump_model true;
			observation_object Market_1;
			observation_property past_market.clearing_price;
			state_property override;
			base_duty_cycle 0.17;
			setpoint duty_cycle;
			first_tier_hours 12;
			second_tier_hours 12;
			first_tier_price 0.066115;
			second_tier_price 0.132229;
			name passive_control_9;
		
		};
		
	};
	
	object waterheater{
		schedule_skew -325;
		heating_element_capacity 5.5 kW;
		tank_setpoint 129.5;
		temperature 132;
		thermostat_deadband 6.9;
		location INSIDE;
		tank_UA 2.7;
		demand large_5*1.02;
		tank_volume 70;
	
		object passive_controller{
			period 300;
			control_mode PROBABILITY_OFF;
			distribution_type NORMAL;
			observation_object Market_1;
			observation_property past_market.clearing_price;
			stdev_observation_property current_price_stdev_1h;
			expectation_object Market_1;
			expectation_property current_price_mean_1h;
			comfort_level 0.46;
			state_property override;
			name passive_control_10;
		
		};
		
	};
	
};

object triplex_meter{
	phases BS;
	name tpm10_tm_1;
	parent tm_1;
	groupid Residential_Meter;
	meter_power_consumption 2+11j;
	bill_mode HOURLY;
	monthly_fee 10.00;
	bill_day 1;
	power_market Market_1;
	nominal_voltage 120;

};

object house{
	parent tpm10_tm_1;
	name house10_tm_1;
	groupid Residential;
	schedule_skew -4795;
	floor_area 864;
	number_of_stories 1;
	ceiling_height 8;
	over_sizing_factor 0.1;
	//Thermal integrity -> Apartment 3;
	Rroof 31.23;
	Rwall 15.44;
	Rfloor 13.01;
	glazing_layers 2;
	glass_type 2;
	glazing_treatment 3;
	window_frame 4;
	Rdoors 7.31;
	airchange_per_hour 0.15;
	cooling_COP 2.3;
	air_temperature 71.64;
	mass_temperature 71.64;
	total_thermal_mass_per_floor_area 2.871;
	heating_system_type RESISTANCE;
	cooling_system_type NONE;
	breaker_amps 1000;
	hvac_breaker_rating 1000;
	cooling_setpoint 81.15;
	heating_setpoint 78.15;

	object controller{
		schedule_skew -4795;
		market Market_1;
		bid_mode ON;
		control_mode RAMP;
		range_high -1.890;
		range_low -0.005;
		ramp_high -2.622;
		ramp_low -2.622;
		base_setpoint heating4*0.35+74.89;
		period 300;
		average_target current_price_mean_1h;
		standard_deviation_target current_price_stdev_1h;
		target air_temperature;
		setpoint heating_setpoint;
		demand last_heating_load;
		deadband thermostat_deadband;
		total hvac_load;
		load hvac_load;
		state power_state;
		name control_3;
		use_predictive_bidding TRUE;
	
	};
	
	object ZIPload{
		name house10_resp_tn_2;
		// Responsive load;
		schedule_skew -4795;
		base_power responsive_loads*0.66;
		heatgain_fraction 0.900;
		power_pf 1.000;
...